.MODEL MBR360 D(IS=1.762772E-14 N=1.103602 BV=60 IBV=100.000001p RS=53.064197m 
+ CJO=319.770094p VJ=4.103804 M=878.749119m EG=1.1 XTI=2 RL=8.290467MEG) 